STI
  -OEChem-10192009593D

 70 74  0     0  0  0  0  0  0999 V2000
   22.8321   11.7502   13.8223 C   0  0  0  0  0  0  0  0  0  0  0  0
   22.0410   12.2047   14.8802 C   0  0  0  0  0  0  0  0  0  0  0  0
   20.6732   11.8367   15.0012 C   0  0  0  0  0  0  0  0  0  0  0  0
   20.1453   11.0259   13.9914 C   0  0  0  0  0  0  0  0  0  0  0  0
   20.8974   10.5923   12.9495 N   0  0  0  0  0  0  0  0  0  0  0  0
   22.1813   10.9535   12.8865 C   0  0  0  0  0  0  0  0  0  0  0  0
   19.7831   12.2915   16.1601 C   0  0  0  0  0  0  0  0  0  0  0  0
   20.2710   12.8615   17.2676 C   0  0  0  0  0  0  0  0  0  0  0  0
   19.3520   13.2129   18.2737 C   0  0  0  0  0  0  0  0  0  0  0  0
   18.0520   12.9791   18.1094 N   0  0  0  0  0  0  0  0  0  0  0  0
   17.5981   12.4151   17.0029 C   0  0  0  0  0  0  0  0  0  0  0  0
   18.4382   12.0507   16.0188 N   0  0  0  0  0  0  0  0  0  0  0  0
   16.2592   12.1560   16.7367 N   0  0  0  0  0  0  0  0  0  0  0  0
   15.3512   12.3045   17.7513 C   0  0  0  0  0  0  0  0  0  0  0  0
   15.2395   11.3411   18.7759 C   0  0  0  0  0  0  0  0  0  0  0  0
   14.2905   11.5774   19.7573 C   0  0  0  0  0  0  0  0  0  0  0  0
   13.4562   12.7372   19.7393 C   0  0  0  0  0  0  0  0  0  0  0  0
   13.5649   13.6686   18.7359 C   0  0  0  0  0  0  0  0  0  0  0  0
   14.5109   13.4342   17.7264 C   0  0  0  0  0  0  0  0  0  0  0  0
   12.6636   14.7706   18.8490 N   0  0  0  0  0  0  0  0  0  0  0  0
   12.5933   15.7151   17.8835 C   0  0  0  0  0  0  0  0  0  0  0  0
   11.4590   16.6749   17.9301 C   0  0  0  0  0  0  0  0  0  0  0  0
   11.0828   17.3597   16.7413 C   0  0  0  0  0  0  0  0  0  0  0  0
   10.0095   18.3143   16.7038 C   0  0  0  0  0  0  0  0  0  0  0  0
    9.3015   18.5682   17.8942 C   0  0  0  0  0  0  0  0  0  0  0  0
    9.6658   17.8895   19.0920 C   0  0  0  0  0  0  0  0  0  0  0  0
   10.7400   16.9439   19.1414 C   0  0  0  0  0  0  0  0  0  0  0  0
    8.1992   19.5608   17.8547 C   0  0  0  0  0  0  0  0  0  0  0  0
    8.1941   20.4408   19.0084 N   0  3  0  0  0  0  0  0  0  0  0  0
    9.4579   21.1875   19.1243 C   0  0  0  0  0  0  0  0  0  0  0  0
    9.4507   22.0879   20.4180 C   0  0  0  0  0  0  0  0  0  0  0  0
    8.1525   22.8507   20.4610 N   0  3  0  0  0  0  0  0  0  0  0  0
    8.1853   23.6608   21.6519 C   0  0  0  0  0  0  0  0  0  0  0  0
    6.9307   22.0672   20.3962 C   0  0  0  0  0  0  0  0  0  0  0  0
    6.9548   21.2647   19.0713 C   0  0  0  0  0  0  0  0  0  0  0  0
   13.4032   15.8339   16.9632 O   0  0  0  0  0  0  0  0  0  0  0  0
   16.0809   10.0896   18.8621 C   0  0  0  0  0  0  0  0  0  0  0  0
   23.8792   12.0007   13.7370 H   0  0  0  0  0  0  0  0  0  0  0  0
   22.4797   12.8522   15.6250 H   0  0  0  0  0  0  0  0  0  0  0  0
   19.1062   10.7359   14.0429 H   0  0  0  0  0  0  0  0  0  0  0  0
   22.7582   10.6001   12.0447 H   0  0  0  0  0  0  0  0  0  0  0  0
   21.3288   13.0449   17.3849 H   0  0  0  0  0  0  0  0  0  0  0  0
   19.7035   13.6750   19.1844 H   0  0  0  0  0  0  0  0  0  0  0  0
   16.0714   11.4282   16.0771 H   0  0  0  0  0  0  0  0  0  0  0  0
   14.1781   10.8637   20.5600 H   0  0  0  0  0  0  0  0  0  0  0  0
   12.7302   12.8834   20.5255 H   0  0  0  0  0  0  0  0  0  0  0  0
   14.5966   14.1370   16.9109 H   0  0  0  0  0  0  0  0  0  0  0  0
   12.0755   14.8451   19.6544 H   0  0  0  0  0  0  0  0  0  0  0  0
   11.6255   17.1538   15.8305 H   0  0  0  0  0  0  0  0  0  0  0  0
    9.7526   18.8236   15.7868 H   0  0  0  0  0  0  0  0  0  0  0  0
    9.1117   18.0953   19.9959 H   0  0  0  0  0  0  0  0  0  0  0  0
   11.0012   16.4476   20.0644 H   0  0  0  0  0  0  0  0  0  0  0  0
    8.3090   20.1721   16.9467 H   0  0  0  0  0  0  0  0  0  0  0  0
    7.2413   19.0212   17.8198 H   0  0  0  0  0  0  0  0  0  0  0  0
    8.1586   19.8431   19.8093 H   0  0  0  0  0  0  0  0  0  0  0  0
   10.2946   20.4759   19.1833 H   0  0  0  0  0  0  0  0  0  0  0  0
    9.5827   21.8276   18.2385 H   0  0  0  0  0  0  0  0  0  0  0  0
    9.5383   21.4535   21.3123 H   0  0  0  0  0  0  0  0  0  0  0  0
   10.2945   22.7928   20.3843 H   0  0  0  0  0  0  0  0  0  0  0  0
    8.1542   23.4687   19.6749 H   0  0  0  0  0  0  0  0  0  0  0  0
    7.2532   24.2399   21.7279 H   0  0  0  0  0  0  0  0  0  0  0  0
    8.2866   23.0117   22.5341 H   0  0  0  0  0  0  0  0  0  0  0  0
    9.0417   24.3495   21.6032 H   0  0  0  0  0  0  0  0  0  0  0  0
    6.8826   21.3769   21.2513 H   0  0  0  0  0  0  0  0  0  0  0  0
    6.0564   22.7345   20.4140 H   0  0  0  0  0  0  0  0  0  0  0  0
    6.9352   21.9618   18.2206 H   0  0  0  0  0  0  0  0  0  0  0  0
    6.0748   20.6062   19.0261 H   0  0  0  0  0  0  0  0  0  0  0  0
   17.1434   10.3655   18.9322 H   0  0  0  0  0  0  0  0  0  0  0  0
   15.7919    9.5144   19.7542 H   0  0  0  0  0  0  0  0  0  0  0  0
   15.9198    9.4770   17.9628 H   0  0  0  0  0  0  0  0  0  0  0  0
  1  2  2  0  0  0  0
  1  6  1  0  0  0  0
  1 38  1  0  0  0  0
  2  3  1  0  0  0  0
  2 39  1  0  0  0  0
  3  4  2  0  0  0  0
  3  7  1  0  0  0  0
  4  5  1  0  0  0  0
  4 40  1  0  0  0  0
  5  6  2  0  0  0  0
  6 41  1  0  0  0  0
  7  8  2  0  0  0  0
  7 12  1  0  0  0  0
  8  9  1  0  0  0  0
  8 42  1  0  0  0  0
  9 10  2  0  0  0  0
  9 43  1  0  0  0  0
 10 11  1  0  0  0  0
 11 12  2  0  0  0  0
 11 13  1  0  0  0  0
 13 14  1  0  0  0  0
 13 44  1  0  0  0  0
 14 15  2  0  0  0  0
 14 19  1  0  0  0  0
 15 16  1  0  0  0  0
 15 37  1  0  0  0  0
 16 17  2  0  0  0  0
 16 45  1  0  0  0  0
 17 18  1  0  0  0  0
 17 46  1  0  0  0  0
 18 19  2  0  0  0  0
 18 20  1  0  0  0  0
 19 47  1  0  0  0  0
 20 21  1  0  0  0  0
 20 48  1  0  0  0  0
 21 22  1  0  0  0  0
 21 36  2  0  0  0  0
 22 23  2  0  0  0  0
 22 27  1  0  0  0  0
 23 24  1  0  0  0  0
 23 49  1  0  0  0  0
 24 25  2  0  0  0  0
 24 50  1  0  0  0  0
 25 26  1  0  0  0  0
 25 28  1  0  0  0  0
 26 27  2  0  0  0  0
 26 51  1  0  0  0  0
 27 52  1  0  0  0  0
 28 29  1  0  0  0  0
 28 53  1  0  0  0  0
 28 54  1  0  0  0  0
 29 30  1  0  0  0  0
 29 35  1  0  0  0  0
 29 55  1  0  0  0  0
 30 31  1  0  0  0  0
 30 56  1  0  0  0  0
 30 57  1  0  0  0  0
 31 32  1  0  0  0  0
 31 58  1  0  0  0  0
 31 59  1  0  0  0  0
 32 33  1  0  0  0  0
 32 34  1  0  0  0  0
 32 60  1  0  0  0  0
 33 61  1  0  0  0  0
 33 62  1  0  0  0  0
 33 63  1  0  0  0  0
 34 35  1  0  0  0  0
 34 64  1  0  0  0  0
 34 65  1  0  0  0  0
 35 66  1  0  0  0  0
 35 67  1  0  0  0  0
 37 68  1  0  0  0  0
 37 69  1  0  0  0  0
 37 70  1  0  0  0  0
M  CHG  2  29   1  32   1
M  END
> <bio:pdb:part:site>
1

> <bio:pdb:part:order>
1

> <bio:pdb:ligand>
true

$$$$
